build
release
lib/charLS-DynamicMemory-browser.js